~VERSION INFORMATION
VERS.                               2.00: CWLS LOG ASCII STANDARD VERSION 2.00
WRAP.                               NO  : ONE LINE PER DEPTH STEP               
~WELL INFORMATION
#MNEM.UNIT                     DATA TYPE  INFORMATION
#----------------------------------------------------------------------
STRT.F                            316.00: START DEPTH
STOP.F                          17750.00: STOP DEPTH
STEP.F                              0.50: STEP VALUE
NULL.                            -999.00: NULL VALUE
COMP.                    ARCO ALASKA INC: COMPANY                               
WELL.               NORTH FORELAND ST #1: WELL                                  
FLD .            Mid Grd Shoal/Trdng Bay: FIELD                                 
LOC .      11N  10W   13 2242FNL 1240FWL: LOCATION                              
CNTY.                              KENAI: COUNTY                                
STAT.                             Alaska: STATE                                 
CTRY.                                 US: COUNTRY                               
SRVC.                                   : SERVICE COMPANY                       
DATE.                                   : LOG DATE                              
API .                   50883200850000  : UNIQUE WELL IDENTIFIER                
~PARAMETER INFORMATION                                                          
#MNEM.UNIT        VALUE   DESCRIPTION                                           
#---------      --------  -----------                                           
ELEV    .F          104.8: KB ELEVATION                                         
TDD     .F        17774.0: TOTAL DEPTH DRILLED                                  
~OTHER INFORMATION                                                              
LGD0    .          4/13/92                                                      
MT0     .          SEAWATER GEL                                                 
LGD0    .          5/7/92                                                       
MT0     .          GEL                                                          
LGD0    .          6/16/92                                                      
MT0     .          GEL                                                          
LGD0    .          6/26/92                                                      
MT0     .          FRESH BARITE                                                 
LGD0    .          7/25/92                                                      
MT0     .          FRESH BARITE                                                 
LGD0    .          8/28/92                                                      
MT0     .          FRESH BARITE                                                 
~CURVE INFORMATION                                                              
#MNEM.UNIT                 DESCRIPTION                                          
#---------                 -----------                                          
DEPTH   .F               :  1 DEPTH
GR      .GAPI          00:  2 GAMMA RAY                                       
SFL     .OHMM          00:  3 SPHER. OR SHAL. FOC. LOG                        
IMPH    .OHMM          00:  4 INDUCTION MEDIUM PHASOR                         
IDPH    .OHMM          00:  5 INDUCTION DB PHASOR                             
ILM     .OHMM          00:  6 INDUCTION LOG MEDIUM                            
ILD     .OHMM          00:  7 INDUCTION LOG DEEP                              
SP      .MV            00:  8 SELF POTENTIAL                                  
TENS    .LB            00:  9 TENSION                                         
TEMP    .DEGF          00: 10 CALC TEMP CURVE                                 
LLD     .OHMM          00: 11 DEEP LATEROLOG                                  
LLS     .OHMM          00: 12 SHALLOW LATEROLOG                               
DT      .US/F          00: 13 INTERV TRANSIT TIME                             
RHOB    .G/C3          00: 14 BULK DENSITY                                    
DRHO    .G/C3          00: 15 DENSITY CORRECTN                                
PEF     .B/E           00: 16 FOTO ELECTRO. XSCT                              
CALI    .IN            00: 17 CALIPER                                         
CNS     .%             00: 18 COMPENSATED NEUT (-S)                           
~A  DEPTH    GR         SFL        IMPH       IDPH       ILM        ILD        SP         TENS       TEMP       LLD        LLS        DT         RHOB       DRHO       PEF        CALI       CNS                                                              
   316.000   30.14063   10.34375   1.203125   2.257813   2.041016   1.945313   17.70313   5.000000   78.81250   -999.000   -999.000   -999.000   1.915636   -.067126   1.677734   18.46875   37.76402 
   316.500   31.48438   10.68750   1.150391   1.894531   2.478516   1.621094   17.64063   10.00000   78.81250   -999.000   -999.000   -999.000   2.001264   -.045286   1.866211   18.60938   38.18016 
   317.000   33.09375   14.43750   1.486328   2.376953   2.820313   2.367188   17.89063   5.000000   78.75000   -999.000   -999.000   -999.000   2.068689   -.029317   2.04101
